models/EPRI_Ckt24-G/fdr_05410/Branches.dss
New "Line.fdr_05410" bus1=subxfmr_lsb bus2=05410 linecode=busbar normamps=2000 emergamps=600 phases=3 length=1 units=ft
New "Line.05410_339569oh" bus1=05410.1.2.3 bus2=n283575.1.2.3 geometry=OH3P_FR8_N56_OH_477_AAC_OH_477_AAC_ABCN normamps=650 emergamps=975 phases=3 length=140.1192 units=ft
New "Line.05410_339564oh" bus1=n283575.1.2.3 bus2=n283602.1.2.3 geometry=OH3P_FR8_N56_OH_477_AAC_OH_477_AAC_ABCN normamps=650 emergamps=975 phases=3 length=746.1523 units=ft
New "Line.05410_339565oh" bus1=n283606.1.2.3 bus2=n283602.1.2.3 geometry=OH3P_FR8_N56_OH_477_AAC_OH_477_AAC_ABCN normamps=650 emergamps=975 phases=3 length=32.8218 units=ft
New "Line.05410_47572098oh" bus1=n283606.1.2.3 bus2=n283605.1.2.3 geometry=OH3P_FR8_N56_OH_336_AAC_OH_4/0_AAC_ABCN normamps=521 emergamps=781.5 phases=3 length=32.9 units=ft
New "Line.05410_339436oh" bus1=n283606.1.2.3 bus2=n283609.1.2.3 geometry=OH3P_FR8_N56_OH_336_AAC_OH_4/0_AAC_ABCN normamps=521 emergamps=781.5 phases=3 length=194.4161 units=ft
New "Line.05410_339437oh" bus1=n283609.1.2.3 bus2=n283615.1.2.3 geometry=OH3P_FR8_N56_OH_336_AAC_OH_4/0_AAC_ABCN normamps=521 emergamps=781.5 phases=3 length=288.5049 units=ft
New "Line.g2000vh9100_n283615_sec_2" bus1=g2000vh9100_n283615_sec.3 bus2=g2000vh9100_n283615_sec_2.3 linecode=2/0_2/0 normamps=230 emergamps=287.5 phases=1 length=150 units=ft
New "Line.g2000vh9100_n283615_sec_1" bus1=g2000vh9100_n283615_sec.3 bus2=g2000vh9100_n283615_sec_1.3 linecode=2/0_2/0 normamps=230 emergamps=287.5 phases=1 length=200 units=ft
New "Line.05410_339438oh" bus1=n283615.1.2.3 bus2=n283622.1.2.3 geometry=OH3P_FR8_N56_OH_336_AAC_OH_4/0_AAC_ABCN normamps=521 emergamps=781.5 phases=3 length=298.1101 units=ft
New "Line.05410_47604112oh" bus1=n283622.2.3 bus2=n283625.2.3 geometry=OH3P_FR8_N56_OH_1/0_AAAC_5005_OH_1/0_AAAC_5005_BCN normamps=261 emergamps=391.5 phases=2 length=32.3538 units=ft
New "Line.05410_48191117ug" bus1=n283625.2.3 bus2=n1347006.2.3 linecode=UG_1/0_Al_XLPE_35kV_1_Phase normamps=200 emergamps=600 phases=2 length=73.851 units=ft
New "Line.05410_19338681ug" bus1=n1347006.2.3 bus2=n283629.2.3 linecode=UG_1/0_Al_XLPE_35kV_1_Phase normamps=200 emergamps=600 phases=2 length=24.4169 units=ft
New "Line.05410_19338679ug" bus1=n283629.2 bus2=n283634.2 linecode=UG_1/0_Al_XLPE_35kV_1_Phase normamps=200 emergamps=600 phases=1 length=24.0144 units=ft
New "Line.05410_19338675ug" bus1=n283642.2 bus2=n283634.2 linecode=UG_1/0_Al_XLPE_35kV_1_Phase normamps=200 emergamps=600 phases=1 length=130.1608 units=ft
New "Line.05410_108462ug" bus1=n283642.2 bus2=n283675.2 linecode=UG_1/0_Al_XLPE_35kV_1_Phase normamps=200 emergamps=600 phases=1 length=617.0171 units=ft
New "Line.g2000wh5900_n283675_sec_2" bus1=g2000wh5900_n283675_sec.2 bus2=g2000wh5900_n283675_sec_2.2 linecode=Sweetbriar normamps=299 emergamps=373.75 phases=1 length=200 units=ft
New "Line.g2000wh5900_n283675_sec_1" bus1=g2000wh5900_n283675_sec.2 bus2=g2000wh5900_n283675_sec_1.2 linecode=Sweetbriar normamps=299 emergamps=373.75 phases=1 length=200 units=ft
New "Line.g2000vh9500_n283675_sec_14" bus1=g2000vh9500_n283675_sec.2 bus2=g2000vh9500_n283675_sec_14.2 linecode=Sweetbriar normamps=299 emergamps=373.75 phases=1 length=200 units=ft
New "Line.g2000vh9500_n283675_sec_13" bus1=g2000vh9500_n283675_sec.2 bus2=g2000vh9500_n283675_sec_13.2 linecode=Sweetbriar normamps=299 emergamps=373.75 phases=1 length=200 units=ft
New "Line.g2000vh9500_n283675_sec_12" bus1=g2000vh9500_n283675_sec.2 bus2=g2000vh9500_n283675_sec_12.2 linecode=Sweetbriar normamps=299 emergamps=373.75 phases=1 length=200 units=ft
New "Line.g2000vh9500_n283675_sec_11" bus1=g2000vh9500_n283675_sec.2 bus2=g2000vh9500_n283675_sec_11.2 linecode=Sweetbriar normamps=299 emergamps=373.75 phases=1 length=200 units=ft
New "Line.g2000vh9500_n283675_sec_10" bus1=g2000vh9500_n283675_sec.2 bus2=g2000vh9500_n283675_sec_10.2 linecode=Sweetbriar normamps=299 emergamps=373.75 phases=1 length=200 units=ft
New "Line.g2000vh9500_n283675_sec_9" bus1=g2000vh9500_n283675_sec.2 bus2=g2000vh9500_n283675_sec_9.2 linecode=Sweetbriar normamps=299 emergamps=373.75 phases=1 length=200 units=ft
New "Line.g2000vh9500_n283675_sec_8" bus1=g2000vh9500_n283675_sec.2 bus2=g2000vh9500_n283675_sec_8.2 linecode=Sweetbriar normamps=299 emergamps=373.75 phases=1 length=200 units=ft
New "Line.g2000vh9500_n283675_sec_7" bus1=g2000vh9500_n283675_sec.2 bus2=g2000vh9500_n283675_sec_7.2 linecode=Sweetbriar normamps=299 emergamps=373.75 phases=1 length=200 units=ft
New "Line.g2000vh9500_n283675_sec_6" bus1=g2000vh9500_n283675_sec.2 bus2=g2000vh9500_n283675_sec_6.2 linecode=Sweetbriar normamps=299 emergamps=373.75 phases=1 length=200 units=ft
New "Line.g2000vh9500_n283675_sec_5" bus1=g2000vh9500_n283675_sec.2 bus2=g2000vh9500_n283675_sec_5.2 linecode=Sweetbriar normamps=299 emergamps=373.75 phases=1 length=200 units=ft
New "Line.g2000vh9500_n283675_sec_4" bus1=g2000vh9500_n283675_sec.2 bus2=g2000vh9500_n283675_sec_4.2 linecode=Sweetbriar normamps=299 emergamps=373.75 phases=1 length=200 units=ft
New "Line.g2000vh9500_n283675_sec_3" bus1=g2000vh9500_n283675_sec.2 bus2=g2000vh9500_n283675_sec_3.2 linecode=Sweetbriar normamps=299 emergamps=373.75 phases=1 length=200 units=ft
New "Line.g2000vh9500_n283675_sec_2" bus1=g2000vh9500_n283675_sec.2 bus2=g2000vh9500_n283675_sec_2.2 linecode=Sweetbriar normamps=299 emergamps=373.75 phases=1 length=200 units=ft
New "Line.g2000vh9500_n283675_sec_1" bus1=g2000vh9500_n283675_sec.2 bus2=g2000vh9500_n283675_sec_1.2 linecode=Sweetbriar normamps=299 emergamps=373.75 phases=1 length=200 units=ft
New "Line.05410_108463ug" bus1=n283710.2 bus2=n283675.2 linecode=UG_1/0_Al_XLPE_35kV_1_Phase normamps=200 emergamps=600 phases=1 length=634.3537 units=ft
New "Line.g2000wi4400_n283710_sec_7" bus1=g2000wi4400_n283710_sec.2 bus2=g2000wi4400_n283710_sec_7.2 linecode=Sweetbriar normamps=299 emergamps=373.75 phases=1 length=200 units=ft
New "Line.g2000wi4400_n283710_sec_6" bus1=g2000wi4400_n283710_sec.2 bus2=g2000wi4400_n283710_sec_6.2 linecode=Sweetbriar normamps=299 emergamps=373.75 phases=1 length=200 units=ft
New "Line.g2000wi4400_n283710_sec_5" bus1=g2000wi4400_n283710_sec.2 bus2=g2000wi4400_n283710_sec_5.2 linecode=Sweetbriar normamps=299 emergamps=373.75 phases=1 length=200 units=ft
New "Line.g2000wi4400_n283710_sec_4" bus1=g2000wi4400_n283710_sec.2 bus2=g2000wi4400_n283710_sec_4.2 linecode=Sweetbriar normamps=299 emergamps=373.75 phases=1 length=200 units=ft
New "Line.g2000wi4400_n283710_sec_3" bus1=g2000wi4400_n283710_sec.2 bus2=g2000wi4400_n283710_sec_3.2 linecode=Sweetbriar normamps=299 emergamps=373.75 phases=1 length=200 units=ft
New "Line.g2000wi4400_n283710_sec_2" bus1=g2000wi4400_n283710_sec.2 bus2=g2000wi4400_n283710_sec_2.2 linecode=Sweetbriar normamps=299 emergamps=373.75 phases=1 length=200 units=ft
New "Line.g2000wi4400_n283710_sec_1" bus1=g2000wi4400_n283710_sec.2 bus2=g2000wi4400_n283710_sec_1.2 linecode=Sweetbriar normamps=299 emergamps=373.75 phases=1 length=200 units=ft
New "Line.05410_108464ug" bus1=n283684.2 bus2=n283710.2 linecode=UG_1/0_Al_XLPE_35kV_1_Phase normamps=200 emergamps=600 phases=1 length=647.4377 units=ft
New "Line.g2000vi6200_n283684_sec_13" bus1=g2000vi6200_n283684_sec.2 bus2=g2000vi6200_n283684_sec_13.2 linecode=Sweetbriar normamps=299 emergamps=373.75 phases=1 length=200 units=ft
New "Line.g2000vi6200_n283684_sec_12" bus1=g2000vi6200_n283684_sec.2 bus2=g2000vi6200_n283684_sec_12.2 linecode=Sweetbriar normamps=299 emergamps=373.75 phases=1 length=200 units=ft
New "Line.g2000vi6200_n283684_sec_11" bus1=g2000vi6200_n283684_sec.2 bus2=g2000vi6200_n283684_sec_11.2 linecode=Sweetbriar normamps=299 emergamps=373.75 phases=1 length=200 units=ft
New "Line.g2000vi6200_n283684_sec_10" bus1=g2000vi6200_n283684_sec.2 bus2=g2000vi6200_n283684_sec_10.2 linecode=Sweetbriar normamps=299 emergamps=373.75 phases=1 length=200 units=ft
New "Line.g2000vi6200_n283684_sec_9" bus1=g2000vi6200_n283684_sec.2 bus2=g2000vi6200_n283684_sec_9.2 linecode=Sweetbriar normamps=299 emergamps=373.75 phases=1 length=200 units=ft
New "Line.g2000vi6200_n283684_sec_8" bus1=g2000vi6200_n283684_sec.2 bus2=g2000vi6200_n283684_sec_8.2 linecode=Sweetbriar normamps=299 emergamps=373.75 phases=1 length=200 units=ft
New "Line.g2000vi6200_n283684_sec_7" bus1=g2000vi6200_n283684_sec.2 bus2=g2000vi6200_n283684_sec_7.2 linecode=Sweetbriar normamps=299 emergamps=373.75 phases=1 length=200 units=ft
New "Line.g2000vi6200_n283684_sec_6" bus1=g2000vi6200_n283684_sec.2 bus2=g2000vi6200_n283684_sec_6.2 linecode=Sweetbriar normamps=299 emergamps=373.75 phases=1 length=200 units=ft
New "Line.g2000vi6200_n283684_sec_5" bus1=g2000vi6200_n283684_sec.2 bus2=g2000vi6200_n283684_sec_5.2 linecode=Sweetbriar normamps=299 emergamps=373.75 phases=1 length=200 units=ft
New "Line.g2000vi6200_n283684_sec_4" bus1=g2000vi6200_n283684_sec.2 bus2=g2000vi6200_n283684_sec_4.2 linecode=Sweetbriar normamps=299 emergamps=373.75 phases=1 length=200 units=ft
New "Line.g2000vi6200_n283684_sec_3" bus1=g2000vi6200_n283684_sec.2 bus2=g2000vi6200_n283684_sec_3.2 linecode=Sweetbriar normamps=299 emergamps=373.75 phases=1 length=200 units=ft
New "Line.g2000vi6200_n283684_sec_2" bus1=g2000vi6200_n283684_sec.2 bus2=g2000vi6200_n283684_sec_2.2 linecode=Sweetbriar normamps=299 emergamps=373.75 phases=1 length=200 units=ft
New "Line.g2000vi6200_n283684_sec_1" bus1=g2000vi6200_n283684_sec.2 bus2=g2000vi6200_n283684_sec_1.2 linecode=Sweetbriar normamps=299 emergamps=373.75 phases=1 length=200 units=ft
New "Line.05410_108465ug" bus1=n283716.2 bus2=n283684.2 linecode=UG_1/0_Al_XLPE_35kV_1_Phase normamps=200 emergamps=600 phases=1 length=619.3274 units=ft
New "Line.g2000vj0200_n283716_sec_7" bus1=g2000vj0200_n283716_sec.2 bus2=g2000vj0200_n283716_sec_7.2 linecode=Sweetbriar normamps=299 emergamps=373.75 phases=1 length=200 units=ft
New "Line.g2000vj0200_n283716_sec_6" bus1=g2000vj0200_n283716_sec.2 bus2=g2000vj0200_n283716_sec_6.2 linecode=Sweetbriar normamps=299 emergamps=373.75 phases=1 length=200 units=ft
New "Line.g2000vj0200_n283716_sec_5" bus1=g2000vj0200_n283716_sec.2 bus2=g2000vj0200_n283716_sec_5.2 linecode=Sweetbriar normamps=299 emergamps=373.75 phases=1 length=200 units=ft
New "Line.g2000vj0200_n283716_sec_4" bus1=g2000vj0200_n283716_sec.2 bus2=g2000vj0200_n283716_sec_4.2 linecode=Sweetbriar normamps=299 emergamps=373.75 phases=1 length=200 units=ft
New "Line.g2000vj0200_n283716_sec_3" bus1=g2000vj0200_n283716_sec.2 bus2=g2000vj0200_n283716_sec_3.2 linecode=Sweetbriar normamps=299 emergamps=373.75 phases=1 length=200 units=ft
New "Line.g2000vj0200_n283716_sec_2" bus1=g2000vj0200_n283716_sec.2 bus2=g2000vj0200_n283716_sec_2.2 linecode=Sweetbriar normamps=299 emergamps=373.75 phases=1 length=200 units=ft
New "Line.g2000vj0200_n283716_sec_1" bus1=g2000vj0200_n283716_sec.2 bus2=g2000vj0200_n283716_sec_1.2 linecode=Sweetbriar normamps=299 emergamps=373.75 phases=1 length=200 units=ft
New "Line.05410_108466ug" bus1=n283731.2 bus2=n283716.2 linecode=UG_1/0_Al_XLPE_35kV_1_Phase normamps=200 emergamps=600 phases=1 length=528.6427 units=ft
New "Line.g2000uj3600_n283731_sec_6" bus1=g2000uj3600_n283731_sec.2 bus2=g2000uj3600_n283731_sec_6.2 linecode=Sweetbriar normamps=299 emergamps=373.75 phases=1 length=200 units=ft
New "Line.g2000uj3600_n283731_sec_5" bus1=g2000uj3600_n283731_sec.2 bus2=g2000uj3600_n283731_sec_5.2 linecode=Sweetbriar normamps=299 emergamps=373.75 phases=1 length=200 units=ft
New "Line.g2000uj3600_n283731_sec_4" bus1=g2000uj3600_n283731_sec.2 bus2=g2000uj3600_n283731_sec_4.2 linecode=Sweetbriar normamps=299 emergamps=373.75 phases=1 length=200 units=ft
New "Line.g2000uj3600_n283731_sec_3" bus1=g2000uj3600_n283731_sec.2 bus2=g2000uj3600_n283731_sec_3.2 linecode=Sweetbriar normamps=299 emergamps=373.75 phases=1 length=200 units=ft
New "Line.g2000uj3600_n283731_sec_2" bus1=g2000uj3600_n283731_sec.2 bus2=g2000uj3600_n283731_sec_2.2 linecode=Sweetbriar normamps=299 emergamps=373.75 phases=1 length=200 units=ft
New "Line.g2000uj3600_n283731_sec_1" bus1=g2000uj3600_n283731_sec.2 bus2=g2000uj3600_n283731_sec_1.2 linecode=Sweetbriar normamps=299 emergamps=373.75 phases=1 length=200 units=ft
New "Line.05410_108467ug" bus1=n283747.2 bus2=n283731.2 linecode=UG_1/0_Al_XLPE_35kV_1_Phase normamps=200 emergamps=600 phases=1 length=574.1637 units=ft
New "Line.g2000uj6500_n283747_sec_7" bus1=g2000uj6500_n283747_sec.2 bus2=g2000uj6500_n283747_sec_7.2 linecode=Sweetbriar normamps=299 emergamps=373.75 phases=1 length=200 units=ft
New "Line.g2000uj6500_n283747_sec_6" bus1=g2000uj6500_n283747_sec.2 bus2=g2000uj6500_n283747_sec_6.2 linecode=Sweetbriar normamps=299 emergamps=373.75 phases=1 length=200 units=ft
New "Line.g2000uj6500_n283747_sec_5" bus1=g2000uj6500_n283747_sec.2 bus2=g2000uj6500_n283747_sec_5.2 linecode=Sweetbriar normamps=299 emergamps=373.75 phases=1 length=200 units=ft
New "Line.g2000uj6500_n283747_sec_4" bus1=g2000uj6500_n283747_sec.2 bus2=g2000uj6500_n283747_sec_4.2 linecode=Sweetbriar normamps=299 emergamps=373.75 phases=1 length=200 units=ft
New "Line.g2000uj6500_n283747_sec_3" bus1=g2000uj6500_n283747_sec.2 bus2=g2000uj6500_n283747_sec_3.2 linecode=Sweetbriar normamps=299 emergamps=373.75 phases=1 length=200 units=ft
New "Line.g2000uj6500_n283747_sec_2" bus1=g2000uj6500_n283747_sec.2 bus2=g2000uj6500_n283747_sec_2.2 linecode=Sweetbriar normamps=299 emergamps=373.75 phases=1 length=200 units=ft
New "Line.g2000uj6500_n283747_sec_1" bus1=g2000uj6500_n283747_sec.2 bus2=g2000uj6500_n283747_sec_1.2 linecode=Sweetbriar normamps=299 emergamps=373.75 phases=1 length=200 units=ft
New "Line.05410_108468ug" bus1=n283772.2 bus2=n283747.2 linecode=UG_1/0_Al_XLPE_35kV_1_Phase normamps=200 emergamps=600 phases=1 length=779.2173 units=ft
New "Line.g2000ul3200_n283772_sec_7" bus1=g2000ul3200_n283772_sec.2 bus2=g2000ul3200_n283772_sec_7.2 linecode=Sweetbriar normamps=299 emergamps=373.75 phases=1 length=200 units=ft
New "Line.g2000ul3200_n283772_sec_6" bus1=g2000ul3200_n283772_sec.2 bus2=g2000ul3200_n283772_sec_6.2 linecode=Sweetbriar normamps=299 emergamps=373.75 phases=1 length=200 units=ft
New "Line.g2000ul3200_n283772_sec_5" bus1=g2000ul3200_n283772_sec.2 bus2=g2000ul3200_n283772_sec_5.2 linecode=Sweetbriar normamps=299 emergamps=373.75 phases=1 length=200 units=ft
New "Line.g2000ul3200_n283772_sec_4" bus1=g2000ul3200_n283772_sec.2 bus2=g2000ul3200_n283772_sec_4.2 linecode=Sweetbriar normamps=299 emergamps=373.75 phases=1 length=200 units=ft
New "Line.g2000ul3200_n283772_sec_3" bus1=g2000ul3200_n283772_sec.2 bus2=g2000ul3200_n283772_sec_3.2 linecode=Sweetbriar normamps=299 emergamps=373.75 phases=1 length=200 units=ft
New "Line.g2000ul3200_n283772_sec_2" bus1=g2000ul3200_n283772_sec.2 bus2=g2000ul3200_n283772_sec_2.2 linecode=Sweetbriar normamps=299 emergamps=373.75 phases=1 length=200 units=ft
New "Line.g2000ul3200_n283772_sec_1" bus1=g2000ul3200_n283772_sec.2 bus2=g2000ul3200_n283772_sec_1.2 linecode=Sweetbriar normamps=299 emergamps=373.75 phases=1 length=200 units=ft
New "Line.05410_44575240ug" bus1=n1324757.2 bus2=n283772.2 linecode=UG_1/0_Al_XLPE_35kV_1_Phase normamps=200 emergamps=600 phases=1 length=247.6744 units=ft
New "Line.05410_44575244ug" bus1=n1324757.2 bus2=n1324759.2 linecode=UG_1/0_Al_XLPE_35kV_1_Phase normamps=200 emergamps=600 phases=1 length=21.7558 units=ft
New "Line.05410_44575294ug" bus1=n1324759.2 bus2=n1324702.2 linecode=UG_1/0_Al_XLPE_35kV_1_Phase normamps=200 emergamps=600 phases=1 length=33.5371 units=ft
New "Line.05410_19338678ug" bus1=n283629.3 bus2=n283633.3 linecode=UG_1/0_Al_XLPE_35kV_1_Phase normamps=200 emergamps=600 phases=1 length=20.4522 units=ft
New "Line.g2000uh9400_n283633_sec_3" bus1=g2000uh9400_n283633_sec.3 bus2=g2000uh9400_n283633_sec_3.3 linecode=Sweetbriar normamps=299 emergamps=373.75 phases=1 length=200 units=ft
New "Line.g2000uh9400_n283633_sec_2" bus1=g2000uh9400_n283633_sec.3 bus2=g2000uh9400_n283633_sec_2.3 linecode=Sweetbriar normamps=299 emergamps=373.75 phases=1 length=200 units=ft
New "Line.g2000uh9400_n283633_sec_1" bus1=g2000uh9400_n283633_sec.3 bus2=g2000uh9400_n283633_sec_1.3 linecode=Sweetbriar normamps=299 emergamps=373.75 phases=1 length=200 units=ft
New "Line.05410_19338673ug" bus1=n283659.3 bus2=n283633.3 linecode=UG_1/0_Al_XLPE_35kV_1_Phase normamps=200 emergamps=600 phases=1 length=856.7856 units=ft
New "Line.05410_108475ug" bus1=n283659.3 bus2=n283699.3 linecode=UG_1/0_Al_XLPE_35kV_1_Phase normamps=200 emergamps=600 phases=1 length=478.9213 units=ft
New "Line.g2000ui5400_n283699_sec_6" bus1=g2000ui5400_n283699_sec.3 bus2=g2000ui5400_n283699_sec_6.3 linecode=Sweetbriar normamps=299 emergamps=373.75 phases=1 length=200 units=ft
New "Line.g2000ui5400_n283699_sec_5" bus1=g2000ui5400_n283699_sec.3 bus2=g2000ui5400_n283699_sec_5.3 linecode=Sweetbriar normamps=299 emergamps=373.75 phases=1 length=200 units=ft
New "Line.g2000ui5400_n283699_sec_4" bus1=g2000ui5400_n283699_sec.3 bus2=g2000ui5400_n283699_sec_4.3 linecode=Sweetbriar normamps=299 emergamps=373.75 phases=1 length=200 units=ft
New "Line.g2000ui5400_n283699_sec_3" bus1=g2000ui5400_n283699_sec.3 bus2=g2000ui5400_n283699_sec_3.3 linecode=Sweetbriar normamps=299 emergamps=373.75 phases=1 length=200 units=ft
New "Line.g2000ui5400_n283699_sec_2" bus1=g2000ui5400_n283699_sec.3 bus2=g2000ui5400_n283699_sec_2.3 linecode=Sweetbriar normamps=299 emergamps=373.75 phases=1 length=200 units=ft
New "Line.g2000ui5400_n283699_sec_1" bus1=g2000ui5400_n283699_sec.3 bus2=g2000ui5400_n283699_sec_1.3 linecode=Sweetbriar normamps=299 emergamps=373.75 phases=1 length=200 units=ft
New "Line.05410_108474ug" bus1=n283699.3 bus2=n283753.3 linecode=UG_1/0_Al_XLPE_35kV_1_Phase normamps=200 emergamps=600 phases=1 length=913.0026 units=ft
New "Line.g2000uk1100_n283753_sec_5" bus1=g2000uk1100_n283753_sec.3 bus2=g2000uk1100_n283753_sec_5.3 linecode=Sweetbriar normamps=299 emergamps=373.75 phases=1 length=200 units=ft
New "Line.g2000uk1100_n283753_sec_4" bus1=g2000uk1100_n283753_sec.3 bus2=g2000uk1100_n283753_sec_4.3 linecode=Sweetbriar normamps=299 emergamps=373.75 phases=1 length=200 units=ft
New "Line.g2000uk1100_n283753_sec_3" bus1=g2000uk1100_n283753_sec.3 bus2=g2000uk1100_n283753_sec_3.3 linecode=Sweetbriar normamps=299 emergamps=373.75 phases=1 length=200 units=ft
New "Line.g2000uk1100_n283753_sec_2" bus1=g2000uk1100_n283753_sec.3 bus2=g2000uk1100_n283753_sec_2.3 linecode=Sweetbriar normamps=299 emergamps=373.75 phases=1 length=200 units=ft
New "Line.g2000uk1100_n283753_sec_1" bus1=g2000uk1100_n283753_sec.3 bus2=g2000uk1100_n283753_sec_1.3 linecode=Sweetbriar normamps=299 emergamps=373.75 phases=1 length=200 units=ft
New "Line.05410_108473ug" bus1=n283753.3 bus2=n274103.3 linecode=UG_1/0_Al_XLPE_35kV_1_Phase normamps=200 emergamps=600 phases=1 length=690.9807 units=ft
New "Line.g2000tj2700_n274103_sec_4" bus1=g2000tj2700_n274103_sec.3 bus2=g2000tj2700_n274103_sec_4.3 linecode=Sweetbriar normamps=299 emergamps=373.75 phases=1 length=200 units=ft
New "Line.g2000tj2700_n274103_sec_3" bus1=g2000tj2700_n274103_sec.3 bus2=g2000tj2700_n274103_sec_3.3 linecode=Sweetbriar normamps=299 emergamps=373.75 phases=1 length=200 units=ft
New "Line.g2000tj2700_n274103_sec_2" bus1=g2000tj2700_n274103_sec.3 bus2=g2000tj2700_n274103_sec_2.3 linecode=Sweetbriar normamps=299 emergamps=373.75 phases=1 length=200 units=ft
New "Line.g2000tj2700_n274103_sec_1" bus1=g2000tj2700_n274103_sec.3 bus2=g2000tj2700_n274103_sec_1.3 linecode=Sweetbriar normamps=299 emergamps=373.75 phases=1 length=200 units=ft
New "Line.05410_108472ug" bus1=n274103.3 bus2=n283722.3 linecode=UG_1/0_Al_XLPE_35kV_1_Phase normamps=200 emergamps=600 phases=1 length=405.9623 units=ft
New "Line.g2000uj0800_n283722_sec_3" bus1=g2000uj0800_n283722_sec.3 bus2=g2000uj0800_n283722_sec_3.3 linecode=Sweetbriar normamps=299 emergamps=373.75 phases=1 length=200 units=ft
New "Line.g2000uj0800_n283722_sec_2" bus1=g2000uj0800_n283722_sec.3 bus2=g2000uj0800_n283722_sec_2.3 linecode=Sweetbriar normamps=299 emergamps=373.75 phases=1 length=200 units=ft
New "Line.g2000uj0800_n283722_sec_1" bus1=g2000uj0800_n283722_sec.3 bus2=g2000uj0800_n283722_sec_1.3 linecode=Sweetbriar normamps=299 emergamps=373.75 phases=1 length=200 units=ft
New "Line.05410_108471ug" bus1=n283722.3 bus2=n283702.3 linecode=UG_1/0_Al_XLPE_35kV_1_Phase normamps=200 emergamps=600 phases=1 length=393.4486 units=ft
New "Line.g2000ui3100_n283702_sec_4" bus1=g2000ui3100_n283702_sec.3 bus2=g2000ui3100_n283702_sec_4.3 linecode=Sweetbriar normamps=299 emergamps=373.75 phases=1 length=200 units=ft
New "Line.g2000ui3100_n283702_sec_3" bus1=g2000ui3100_n283702_sec.3 bus2=g2000ui3100_n283702_sec_3.3 linecode=Sweetbriar normamps=299 emergamps=373.75 phases=1 length=200 units=ft
New "Line.g2000ui3100_n283702_sec_2" bus1=g2000ui3100_n283702_sec.3 bus2=g2000ui3100_n283702_sec_2.3 linecode=Sweetbriar normamps=299 emergamps=373.75 phases=1 length=200 units=ft
New "Line.g2000ui3100_n283702_sec_1" bus1=g2000ui3100_n283702_sec.3 bus2=g2000ui3100_n283702_sec_1.3 linecode=Sweetbriar normamps=299 emergamps=373.75 phases=1 length=200 units=ft
New "Line.05410_108470ug" bus1=n283702.3 bus2=n283679.3 linecode=UG_1/0_Al_XLPE_35kV_1_Phase normamps=200 emergamps=600 phases=1 length=370.3355 units=ft
New "Line.g2000ui6400_n283679_sec_4" bus1=g2000ui6400_n283679_sec.3 bus2=g2000ui6400_n283679_sec_4.3 linecode=Sweetbriar normamps=299 emergamps=373.75 phases=1 length=200 units=ft
New "Line.g2000ui6400_n283679_sec_3" bus1=g2000ui6400_n283679_sec.3 bus2=g2000ui6400_n283679_sec_3.3 linecode=Sweetbriar normamps=299 emergamps=373.75 phases=1 length=200 units=ft
New "Line.g2000ui6400_n283679_sec_2" bus1=g2000ui6400_n283679_sec.3 bus2=g2000ui6400_n283679_sec_2.3 linecode=Sweetbriar normamps=299 emergamps=373.75 phases=1 length=200 units=ft
New "Line.g2000ui6400_n283679_sec_1" bus1=g2000ui6400_n283679_sec.3 bus2=g2000ui6400_n283679_sec_1.3 linecode=Sweetbriar normamps=299 emergamps=373.75 phases=1 length=200 units=ft
New "Line.05410_42959112ug" bus1=n283679.3 bus2=n283647.3 linecode=UG_1/0_Al_XLPE_35kV_1_Phase normamps=200 emergamps=600 phases=1 length=249.518 units=ft
New "Line.g2000uh9800_n283647_sec_2" bus1=g2000uh9800_n283647_sec.3 bus2=g2000uh9800_n283647_sec_2.3 linecode=Sweetbriar normamps=299 emergamps=373.75 phases=1 length=200 units=ft
New "Line.g2000uh9800_n283647_sec_1" bus1=g2000uh9800_n283647_sec.3 bus2=g2000uh9800_n283647_sec_1.3 linecode=Sweetbriar normamps=299 emergamps=373.75 phases=1 length=200 units=ft
New "Line.05410_44575248ug" bus1=n283647.3 bus2=n1324703.3 linecode=UG_1/0_Al_XLPE_35kV_1_Phase normamps=200 emergamps=600 phases=1 length=28.3342 units=ft
New "Line.05410_339441oh" bus1=n283622.1.2.3 bus2=n283639.1.2.3 geometry=OH3P_FR8_N56_OH_336_AAC_OH_4/0_AAC_ABCN normamps=521 emergamps=781.5 phases=3 length=435.2587 units=ft
New "Line.05410_339444oh" bus1=n283639.1.2.3 bus2=n283661.1.2.3 geometry=OH3P_FR8_N56_OH_336_AAC_OH_4/0_AAC_ABCN normamps=521 emergamps=781.5 phases=3 length=603.6265 units=ft
New "Line.05410_339612oh" bus1=n283661.1.2.3 bus2=n283682.1.2.3 geometry=OH3P_FR8_N56_OH_336_AAC_OH_4/0_AAC_ABCN normamps=521 emergamps=781.5 phases=3 length=547.0673 units=ft
New "Line.05410_339616oh" bus1=n283682.1.2.3 bus2=n283680.1.2.3 geometry=OH3P_FR8_N56_OH_336_AAC_OH_4/0_AAC_ABCN normamps=521 emergamps=781.5 phases=3 length=248.562 units=ft
New "Line.05410_339637oh" bus1=n283680.1.2.3 bus2=n283677.1.2.3 geometry=OH3P_FR8_N56_OH_336_AAC_OH_4/0_AAC_ABCN normamps=521 emergamps=781.5 phases=3 length=204.4584 units=ft
New "Line.05410_52020128oh" bus1=n283677.1.2.3 bus2=n1386727.1.2.3 geometry=OH3P_FR8_N56_OH_336_AAC_OH_4/0_AAC_ABCN normamps=521 emergamps=781.5 phases=3 length=77.9086 units=ft
New "Line.05410_52308178oh" bus1=n1386727_lo.3 bus2=n1385286.3 geometry=OH3P_ARMLPIN_N30_OH_336_AAC_OH_4/0_AAC_CN normamps=521 emergamps=781.5 phases=1 length=14.3842 units=ft
New "Line.05410_52308179oh" bus1=n1385286.3 bus2=n283669.3 geometry=OH3P_ARMLPIN_N30_OH_336_AAC_OH_4/0_AAC_CN normamps=521 emergamps=781.5 phases=1 length=19.5382 units=ft
New "Line.05410_108783ug" bus1=n283669.3 bus2=n1385522.3 linecode=UG_1/0_Al_XLPE_35kV_1_Phase normamps=200 emergamps=600 phases=1 length=241.9479 units=ft
New "Line.g2100ch1800_n1385522_sec_8" bus1=g2100ch1800_n1385522_sec.3 bus2=g2100ch1800_n1385522_sec_8.3 linecode=Sweetbriar normamps=299 emergamps=373.75 phases=1 length=200 units=ft
New "Line.g2100ch1800_n1385522_sec_7" bus1=g2100ch1800_n1385522_sec.3 bus2=g2100ch1800_n1385522_sec_7.3 linecode=Sweetbriar normamps=299 emergamps=373.75 phases=1 length=200 units=ft
New "Line.g2100ch1800_n1385522_sec_6" bus1=g2100ch1800_n1385522_sec.3 bus2=g2100ch1800_n1385522_sec_6.3 linecode=Sweetbriar normamps=299 emergamps=373.75 phases=1 length=200 units=ft
New "Line.g2100ch1800_n1385522_sec_5" bus1=g2100ch1800_n1385522_sec.3 bus2=g2100ch1800_n1385522_sec_5.3 linecode=Sweetbriar normamps=299 emergamps=373.75 phases=1 length=200 units=ft
New "Line.g2100ch1800_n1385522_sec_4" bus1=g2100ch1800_n1385522_sec.3 bus2=g2100ch1800_n1385522_sec_4.3 linecode=Sweetbriar normamps=299 emergamps=373.75 phases=1 length=200 units=ft
New "Line.g2100ch1800_n1385522_sec_3" bus1=g2100ch1800_n1385522_sec.3 bus2=g2100ch1800_n1385522_sec_3.3 linecode=Sweetbriar normamps=299 emergamps=373.75 phases=1 length=200 units=ft
New "Line.g2100ch1800_n1385522_sec_2" bus1=g2100ch1800_n1385522_sec.3 bus2=g2100ch1800_n1385522_sec_2.3 linecode=Sweetbriar normamps=299 emergamps=373.75 phases=1 length=200 units=ft
New "Line.g2100ch1800_n1385522_sec_1" bus1=g2100ch1800_n1385522_sec.3 bus2=g2100ch1800_n1385522_sec_1.3 linecode=Sweetbriar normamps=299 emergamps=373.75 phases=1 length=200 units=ft
New "Line.05410_108682ug" bus1=n1385522.3 bus2=n283665.3 linecode=UG_1/0_Al_XLPE_35kV_1_Phase normamps=200 emergamps=600 phases=1 length=352.8469 units=ft
New "Line.g2100bh3900_n283665_sec_9" bus1=g2100bh3900_n283665_sec.3 bus2=g2100bh3900_n283665_sec_9.3 linecode=Sweetbriar normamps=299 emergamps=373.75 phases=1 length=200 units=ft
New "Line.g2100bh3900_n283665_sec_8" bus1=g2100bh3900_n283665_sec.3 bus2=g2100bh3900_n283665_sec_8.3 linecode=Sweetbriar normamps=299 emergamps=373.75 phases=1 length=200 units=ft
New "Line.g2100bh3900_n283665_sec_7" bus1=g2100bh3900_n283665_sec.3 bus2=g2100bh3900_n283665_sec_7.3 linecode=Sweetbriar normamps=299 emergamps=373.75 phases=1 length=200 units=ft
New "Line.g2100bh3900_n283665_sec_6" bus1=g2100bh3900_n283665_sec.3 bus2=g2100bh3900_n283665_sec_6.3 linecode=Sweetbriar normamps=299 emergamps=373.75 phases=1 length=200 units=ft
New "Line.g2100bh3900_n283665_sec_5" bus1=g2100bh3900_n283665_sec.3 bus2=g2100bh3900_n283665_sec_5.3 linecode=Sweetbriar normamps=299 emergamps=373.75 phases=1 length=200 units=ft
New "Line.g2100bh3900_n283665_sec_4" bus1=g2100bh3900_n283665_sec.3 bus2=g2100bh3900_n283665_sec_4.3 linecode=Sweetbriar normamps=299 emergamps=373.75 phases=1 length=200 units=ft
New "Line.g2100bh3900_n283665_sec_3" bus1=g2100bh3900_n283665_sec.3 bus2=g2100bh3900_n283665_sec_3.3 linecode=Sweetbriar normamps=299 emergamps=373.75 phases=1 length=200 units=ft
New "Line.g2100bh3900_n283665_sec_2" bus1=g2100bh3900_n283665_sec.3 bus2=g2100bh3900_n283665_sec_2.3 linecode=Sweetbriar normamps=299 emergamps=373.75 phases=1 length=200 units=ft
New "Line.g2100bh3900_n283665_sec_1" bus1=g2100bh3900_n283665_sec.3 bus2=g2100bh3900_n283665_sec_1.3 linecode=Sweetbriar normamps=299 emergamps=373.75 phases=1 length=200 units=ft
New "Line.05410_108672ug" bus1=n283665.3 bus2=n283651.3 linecode=UG_1/0_Al_XLPE_35kV_1_Phase normamps=200 emergamps=600 phases=1 length=453.7288 units=ft
New "Line.g2100ah6800_n283651_sec_7" bus1=g2100ah6800_n283651_sec.3 bus2=g2100ah6800_n283651_sec_7.3 linecode=Sweetbriar normamps=299 emergamps=373.75 phases=1 length=200 units=ft
New "Line.g2100ah6800_n283651_sec_6" bus1=g2100ah6800_n283651_sec.3 bus2=g2100ah6800_n283651_sec_6.3 linecode=Sweetbriar normamps=299 emergamps=373.75 phases=1 length=200 units=ft
New "Line.g2100ah6800_n283651_sec_5" bus1=g2100ah6800_n283651_sec.3 bus2=g2100ah6800_n283651_sec_5.3 linecode=Sweetbriar normamps=299 emergamps=373.75 phases=1 length=200 units=ft
New "Line.g2100ah6800_n283651_sec_4" bus1=g2100ah6800_n283651_sec.3 bus2=g2100ah6800_n283651_sec_4.3 linecode=Sweetbriar normamps=299 emergamps=373.75 phases=1 length=200 units=ft
New "Line.g2100ah6800_n283651_sec_3" bus1=g2100ah6800_n283651_sec.3 bus2=g2100ah6800_n283651_sec_3.3 linecode=Sweetbriar normamps=299 emergamps=373.75 phases=1 length=200 units=ft
New "Line.g2100ah6800_n283651_sec_2" bus1=g2100ah6800_n283651_sec.3 bus2=g2100ah6800_n283651_sec_2.3 linecode=Sweetbriar normamps=299 emergamps=373.75 phases=1 length=200 units=ft
New "Line.g2100ah6800_n283651_sec_1" bus1=g2100ah6800_n283651_sec.3 bus2=g2100ah6800_n283651_sec_1.3 linecode=Sweetbriar normamps=299 emergamps=373.75 phases=1 length=200 units=ft
New "Line.05410_108669ug" bus1=n283651.3 bus2=n283636.3 linecode=UG_1/0_Al_XLPE_35kV_1_Phase normamps=200 emergamps=600 phases=1 length=608.7053 units=ft
New "Line.g2000xh7500_n283636_sec_3" bus1=g2000xh7500_n283636_sec.3 bus2=g2000xh7500_n283636_sec_3.3 linecode=Sweetbriar normamps=299 emergamps=373.75 phases=1 length=200 units=ft
New "Line.g2000xh7500_n283636_sec_2" bus1=g2000xh7500_n283636_sec.3 bus2=g2000xh7500_n283636_sec_2.3 linecode=Sweetbriar normamps=299 emergamps=373.75 phases=1 length=200 units=ft
New "Line.g2000xh7500_n283636_sec_1" bus1=g2000xh7500_n283636_sec.3 bus2=g2000xh7500_n283636_sec_1.3 linecode=Sweetbriar normamps=299 emergamps=373.75 phases=1 length=200 units=ft
New "Line.05410_93072ug" bus1=n283612.3 bus2=n283636.3 linecode=UG_1/0_Al_XLPE_35kV_1_Phase normamps=200 emergamps=600 phases=1 length=458.286 units=ft
New "Line.g2000xg5800_n283612_sec_4" bus1=g2000xg5800_n283612_sec.3 bus2=g2000xg5800_n283612_sec_4.3 linecode=Sweetbriar normamps=299 emergamps=373.75 phases=1 length=200 units=ft
New "Line.g2000xg5800_n283612_sec_3" bus1=g2000xg5800_n283612_sec.3 bus2=g2000xg5800_n283612_sec_3.3 linecode=Sweetbriar normamps=299 emergamps=373.75 phases=1 length=200 units=ft
New "Line.g2000xg5800_n283612_sec_2" bus1=g2000xg5800_n283612_sec.3 bus2=g2000xg5800_n283612_sec_2.3 linecode=Sweetbriar normamps=299 emergamps=373.75 phases=1 length=200 units=ft
New "Line.g2000xg5800_n283612_sec_1" bus1=g2000xg5800_n283612_sec.3 bus2=g2000xg5800_n283612_sec_1.3 linecode=Sweetbriar normamps=299 emergamps=373.75 phases=1 length=200 units=ft
New "Line.05410_108670ug" bus1=n283582.3 bus2=n283612.3 linecode=UG_1/0_Al_XLPE_35kV_1_Phase normamps=200 emergamps=600 phases=1 length=520.2357 units=ft
New "Line.g2000xf7700_n283582_sec_4" bus1=g2000xf7700_n283582_sec.3 bus2=g2000xf7700_n283582_sec_4.3 linecode=Sweetbriar normamps=299 emergamps=373.75 phases=1 length=200 units=ft
New "Line.g2000xf7700_n283582_sec_3" bus1=g2000xf7700_n283582_sec.3 bus2=g2000xf7700_n283582_sec_3.3 linecode=Sweetbriar normamps=299 emergamps=373.75 phases=1 length=200 units=ft
New "Line.g2000xf7700_n283582_sec_2" bus1=g2000xf7700_n283582_sec.3 bus2=g2000xf7700_n283582_sec_2.3 linecode=Sweetbriar normamps=299 emergamps=373.75 phases=1 length=200 units=ft
New "Line.g2000xf7700_n283582_sec_1" bus1=g2000xf7700_n283582_sec.3 bus2=g2000xf7700_n283582_sec_1.3 linecode=Sweetbriar normamps=299 emergamps=373.75 phases=1 length=200 units=ft
New "Line.05410_108671ug" bus1=n283544.3 bus2=n283582.3 linecode=UG_1/0_Al_XLPE_35kV_1_Phase normamps=200 emergamps=600 phases=1 length=625.5242 units=ft
New "Line.g2000xe9500_n283544_sec_8" bus1=g2000xe9500_n283544_sec.3 bus2=g2000xe9500_n283544_sec_8.3 linecode=Sweetbriar normamps=299 emergamps=373.75 phases=1 length=200 units=ft
New "Line.g2000xe9500_n283544_sec_7" bus1=g2000xe9500_n283544_sec.3 bus2=g2000xe9500_n283544_sec_7.3 linecode=Sweetbriar normamps=299 emergamps=373.75 phases=1 length=200 units=ft
New "Line.g2000xe9500_n283544_sec_6" bus1=g2000xe9500_n283544_sec.3 bus2=g2000xe9500_n283544_sec_6.3 linecode=Sweetbriar normamps=299 emergamps=373.75 phases=1 length=200 units=ft
New "Line.g2000xe9500_n283544_sec_5" bus1=g2000xe9500_n283544_sec.3 bus2=g2000xe9500_n283544_sec_5.3 linecode=Sweetbriar normamps=299 emergamps=373.75 phases=1 length=200 units=ft
New "Line.g2000xe9500_n283544_sec_4" bus1=g2000xe9500_n283544_sec.3 bus2=g2000xe9500_n283544_sec_4.3 linecode=Sweetbriar normamps=299 emergamps=373.75 phases=1 length=200 units=ft
New "Line.g2000xe9500_n283544_sec_3" bus1=g2000xe9500_n283544_sec.3 bus2=g2000xe9500_n283544_sec_3.3 linecode=Sweetbriar normamps=299 emergamps=373.75 phases=1 length=200 units=ft
New "Line.g2000xe9500_n283544_sec_2" bus1=g2000xe9500_n283544_sec.3 bus2=g2000xe9500_n283544_sec_2.3 linecode=Sweetbriar normamps=299 emergamps=373.75 phases=1 length=200 units=ft
New "Line.g2000xe9500_n283544_sec_1" bus1=g2000xe9500_n283544_sec.3 bus2=g2000xe9500_n283544_sec_1.3 linecode=Sweetbriar normamps=299 emergamps=373.75 phases=1 length=200 units=ft
New "Line.05410_111869ug" bus1=n283537.3 bus2=n283544.3 linecode=UG_1/0_Al_XLPE_35kV_1_Phase normamps=200 emergamps=600 phases=1 length=223.2462 units=ft
New "Line.05410_52020130oh" bus1=n1386727.1.2.3 bus2=n1386726.1.2.3 geometry=OH3P_FR8_N56_OH_336_AAC_OH_4/0_AAC_ABCN normamps=521 emergamps=781.5 phases=3 length=30.1698 units=ft
New "Line.05410_52308180oh" bus1=n1386726_lo.3 bus2=n1385287.3 geometry=OH3P_ARMLPIN_N30_OH_336_AAC_OH_4/0_AAC_CN normamps=521 emergamps=781.5 phases=1 length=15.0886 units=ft
New "Line.05410_52308181oh" bus1=n1385287.3 bus2=n283668.3 geometry=OH3P_ARMLPIN_N30_OH_336_AAC_OH_4/0_AAC_CN normamps=521 emergamps=781.5 phases=1 length=17.7567 units=ft
New "Line.05410_108778ug" bus1=n283653.3 bus2=n283668.3 linecode=UG_1/0_Al_XLPE_35kV_1_Phase normamps=200 emergamps=600 phases=1 length=256.9405 units=ft
New "Line.05410_93125ug" bus1=n283620.3 bus2=n283653.3 linecode=UG_1/0_Al_XLPE_35kV_1_Phase normamps=200 emergamps=600 phases=1 length=872.9449 units=ft
New "Line.05410_7112532ug" bus1=n283620.3 bus2=n283619.3 linecode=UG_1/0_Al_XLPE_35kV_1_Phase normamps=200 emergamps=600 phases=1 length=96.4713 units=ft
New "Line.05410_7112533ug" bus1=n283619.3 bus2=n283618.3 linecode=UG_1/0_Al_XLPE_35kV_1_Phase normamps=200 emergamps=600 phases=1 length=25.6808 units=ft
New "Line.g2100ah8200_n283618_sec_9" bus1=g2100ah8200_n283618_sec.3 bus2=g2100ah8200_n283618_sec_9.3 linecode=Sweetbriar normamps=299 emergamps=373.75 phases=1 length=200 units=ft
New "Line.g2100ah8200_n283618_sec_8" bus1=g2100ah8200_n283618_sec.3 bus2=g2100ah8200_n283618_sec_8.3 linecode=Sweetbriar normamps=299 emergamps=373.75 phases=1 length=200 units=ft
New "Line.g2100ah8200_n283618_sec_7" bus1=g2100ah8200_n283618_sec.3 bus2=g2100ah8200_n283618_sec_7.3 linecode=Sweetbriar normamps=299 emergamps=373.75 phases=1 length=200 units=ft
New "Line.g2100ah8200_n283618_sec_6" bus1=g2100ah8200_n283618_sec.3 bus2=g2100ah8200_n283618_sec_6.3 linecode=Sweetbriar normamps=299 emergamps=373.75 phases=1 length=200 units=ft
New "Line.g2100ah8200_n283618_sec_5" bus1=g2100ah8200_n283618_sec.3 bus2=g2100ah8200_n283618_sec_5.3 linecode=Sweetbriar normamps=299 emergamps=373.75 phases=1 length=200 units=ft
...
